          287
i
Au      5.31077455      0.12693819      7.02185122
Au      4.94874208     -2.50133237      6.82907050
Au      0.08610568      3.67688902      9.98139861
Au      0.40321660      1.69652481      8.27482994
Au      6.01749345     -1.59525631     13.52966339
Au      6.98265209     -0.22935317      9.18693398
Au      3.01955084     -4.49315415      6.84579359
Au      4.70364063      0.74935488     13.85423912
Au     -0.13885310      0.26101165     15.72024992
Au      1.72230053      3.40251518     12.05938768
Au     -2.27505041     -0.80975777     14.37129212
Au      7.48846439     -1.81343865     11.31869287
Au     -2.08952895     -4.09028981      7.34174417
Au     -4.01623794     -4.33458223     12.12735982
Au      3.57923646     -6.17375058      9.13723532
Au     -1.90394821      1.84910486     14.51178429
Au      2.57611970     -7.06214548     11.40621797
Au     -3.13013951     -5.05957847      9.72249944
Au      2.54398924      0.85764251     15.52718298
Au      2.56131362      2.68359342      9.57803120
Au     -4.52079505     -2.77357491     10.02281393
Au      6.64525239     -2.84193004      9.04556765
Au      3.19024814     -0.89296503      5.72113816
Au      4.99812633      1.53055311      9.27579969
Au     -3.48368487     -1.81792601      7.66647193
Au      0.31530122     -7.05467967     12.92478062
Au      0.97340646     -6.75360001      9.23012412
Au      1.70864459     -1.36787633     16.76025630
Au      0.75878800     -0.39671344      6.63001022
Au      0.44760352     -5.08845523      7.03148232
Au      2.07074747     -3.48938061     15.25175909
Au      3.31333530      2.99907537     14.13549298
Au     -2.48478985     -3.50164760     14.10919799
Au     -0.03498762     -4.58975882     13.90058955
Au     -2.75298002      0.78589871     12.23436083
Au      6.66346207     -4.05067525     12.61541391
Au      4.24206945     -3.63417390     13.59481567
Au     -3.46719976     -0.32519017      9.88298719
Au     -1.35052426     -1.88620820      6.06211181
Au     -1.23633313     -6.70650881     10.82234475
Cu      3.81052953     -1.45540645     15.09975558
Cu     -0.60155105     -4.67185036      9.37254613
Cu      3.56203425     -1.25686710     12.60036354
Cu      1.23457385     -2.83547744      5.85417684
Cu     -0.28791139      0.38020964     13.08255831
Cu      1.81460241     -3.17378110     12.65409476
Cu      5.69186568     -5.01097247     10.41640752
Cu      1.80537928     -4.23352924      9.13704458
Cu      1.26684112     -0.92619707     11.73631150
Cu      2.53314312     -2.09565158      7.88531678
Cu     -1.49472253     -4.11452884     11.66099532
Cu     -2.91570844     -1.91438688     11.97923958
Cu     -1.31912838     -0.40842757      8.31031460
Cu      3.31604127     -4.54573721     11.21584932
Cu     -1.62653609      1.63178395      9.97292919
Cu      2.73880927     -2.27227241     10.36759291
Cu     -1.98126001     -2.58948964      9.62027571
Cu      1.01658308     -0.66031568      9.25863422
Cu      0.06818418     -2.62997047      8.05855155
Cu     -0.85427452      2.66590612     12.22559315
Cu      4.23205855     -3.69236138      8.98255440
Cu      5.04291684     -2.65313057     11.18115506
Cu     -1.03616933     -0.63321426     10.83754713
Cu      0.70501008      2.35976597     14.28641273
Cu      2.40961159     -5.51889469     13.49708320
Cu      4.56657867     -1.15719764      9.13823874
Cu      1.47845955     -1.14951044     14.17122873
Cu      3.07097780      0.26592423     10.52818779
Cu      4.10979889      2.20787549     11.71478716
Cu      2.26392216      0.95925317     12.89602180
Cu     -0.55465835     -2.16556770     12.90057780
Cu      5.44830102     -0.06999240     11.37643386
Cu      2.86991230      0.51065677      7.99347035
Cu      4.77127694     -5.96304222     12.53113026
Cu     -1.48430742     -6.55981479      8.16855365
Cu      0.31110361     -2.77727725     10.56391102
Cu     -0.36384011     -2.38860867     15.39727821
Cu      0.71249084      1.28587064     10.85893958
Cu      0.85242340     -5.09263624     11.37781963
Cu     -2.13790798     -5.96026194     13.15003360
H 4.65199 -1.50835 16.3404
H 1.19935 -3.11433 4.38075
H 6.82716 -5.95017 10.1353
H -4.30203 -1.64993 12.4873
H -2.59265 2.66059 9.46482
H -1.56801 3.96418 12.4602
H 0.48292 3.524 15.2058
H 2.73737 -6.52764 14.5577
H 4.99104 3.4208 11.7619
H 5.59104 -7.09135 13.0833
H -2.11755 -7.71168 7.44592
H -0.903086 -2.73082 16.7545
H -2.91053 -7.02368 13.8727
H 6.16887 0.750379 5.96119
H 5.85808 -2.79679 5.6733
H -0.272117 5.07208 9.56291
H 0.0754546 2.70527 7.21417
H 7.19338 -1.44671 14.449
H 8.32194 0.300908 8.76845
H 3.53187 -5.30045 5.69002
H 5.77298 1.42798 14.658
H -0.576052 0.726581 17.0775
H 1.81574 4.88775 12.2474
H -3.39134 -0.668737 15.3633
H 8.9737 -1.72 11.5067
H -2.9565 -4.64049 6.24829
H -5.35553 -4.86484 12.5458
H 4.24243 -7.3801 8.54151
H -2.80832 2.69837 15.3549
H 2.9475 -8.50857 11.5474
H -4.31444 -5.92002 9.39528
H 2.95313 1.50234 16.8183
H 2.98672 3.99285 8.98231
H -6.00603 -2.86702 9.83481
H 7.95451 -3.26733 8.44985
H 3.50755 -0.555069 4.29455
H 5.83665 2.68468 8.81227
H -4.67572 -1.59053 6.78479
H 0.145194 -8.40122 13.5634
H 1.06202 -8.16214 8.72202
H 1.8429 -1.4115 18.2536
H 0.522834 0.329477 5.3389
H 0.3371 -5.96318 5.81796
H 2.3067 -4.21557 16.5429
H 3.87301 4.18843 14.8581
H -3.47097 -3.8921 15.1699
H -0.295528 -5.39162 15.1412
H -4.05126 1.49963 12.469
H 7.92539 -4.64449 13.1676
H 4.97878 -4.24364 14.7506
H -4.75838 0.384641 9.60192
H -1.96913 -1.72738 4.70487
H -1.875 -8.06375 10.8223
H 3.53117 -1.42011 16.8776
H 2.38023 -4.05548 5.19155
H 2.2456 -1.99909 4.62199
H -0.175907 -2.47333 4.79616
H 5.29301 -6.5644 9.59922
H 7.16537 -4.5322 9.50013
H 7.22898 -5.20516 11.3327
H -1.62654 3.36031 9.47075
H -3.30677 1.41952 9.3632
H -1.04846 4.20302 11.3093
H -1.85113 3.39017 13.5377
H -0.696871 3.01944 15.2027
H 1.83585 3.56399 15.0013
H 2.51327 -5.25709 15.2749
H 5.25964 2.84001 10.4826
H 4.45471 3.55123 12.8622
H 4.12039 -7.607 12.1938
H 6.53591 -5.85202 12.8684
H -2.4015 -5.80105 6.81835
H -3.23749 -6.44951 8.56121
H -0.174753 -7.78957 8.28158
H -0.618862 -6.50537 6.5912
H -2.00895 -7.67473 9.4807
H 0.188004 -2.31889 17.1092
H -3.92371 -5.96026 12.9244
H -1.30518 -7.47498 13.6522
H 7.04048 0.34545 7.46949
H 4.71185 0.0126865 5.32827
H 5.73195 1.76732 7.63158
H 4.4007 -3.88553 5.81732
H 6.6502 -2.93819 7.22173
H -0.00995005 3.47276 8.19559
H 0.970164 4.74553 11.1288
H 1.61142 4.17249 9.16422
H 0.319337 1.36983 6.50671
H 6.32704 0.0274413 14.2445
H 7.7575 -1.48578 13.082
H 8.40988 -0.900957 10.0541
H 3.85228 -6.00788 7.34798
H 4.90134 2.31427 14.7214
H 0.532751 -0.108206 17.3489
H 2.55869 4.41354 13.2916
H -3.04769 0.595673 15.1885
H -3.36626 -2.1288 14.9275
H 8.24368 -2.61766 9.89641
H 8.20567 -3.11804 12.3304
H -3.62193 -3.3692 6.73202
H -5.45677 -3.76423 11.2111
H 3.57924 -7.72309 10.0535
H -3.42374 1.8491 13.5473
H 1.62716 -8.20924 12.418
H 1.82799 -8.09186 10.1334
H 2.35557 0.277756 17.2208
H 3.29682 2.45748 15.8645
H 4.16137 3.09442 8.86316
H -5.07161 -2.3179 8.37086
H 1.70615 -0.077074 5.11141
H -3.15699 -1.73405 5.89835
H 2.36604 -3.02828 16.9859
H -0.470965 -0.474083 5.31787
H -4.13717 0.872984 11.087
H 5.38088 -0.592098 14.9304
H 5.1768 -2.58568 14.7903
H 4.24411 0.23327 15.5474
H 3.30967 -0.472419 16.522
H 3.10644 -2.49144 16.3924
H 3.8665 -3.23657 15.3534
H 1.57082 -4.59814 5.71295
H 1.493 -1.20386 5.13931
H 0.244861 -1.47326 5.21792
H 5.14017 -5.27058 8.72282
H 5.88028 -4.48763 8.70451
H 6.48549 -5.71065 11.8726
H -3.49158 -2.0056 13.6822
H -3.5692 -0.631843 13.06
H -4.56441 -2.62784 11.8662
H -3.91347 -2.85135 13.1482
H -4.38229 -1.33372 11.1121
H -3.95498 -0.48395 11.642
H -1.37549 1.38514 8.16909
H -2.63681 0.753266 8.70297
H -0.605763 0.715657 7.09889
H -3.07657 -0.0731781 8.11279
H -2.3584 -0.60668 6.85408
H -1.06926 -0.142342 6.54771
H -1.5743 3.29395 10.6618
H -2.44694 2.4022 11.3777
H -0.98516 2.79844 8.76151
H -3.29927 1.36685 10.5827
H 0.275143 3.7265 13.1419
H -0.872589 3.24867 13.9285
H 0.0760298 4.13183 11.7506
H -2.51468 2.45615 12.8882
H 4.77399 -4.23429 7.35387
H 5.64803 -3.82621 7.87932
H 4.41032 -5.10343 7.87932
H -0.447954 2.06374 15.6366
H 0.958585 1.71931 15.9494
H 1.68881 3.80738 13.8662
H 2.06737 2.61965 15.4338
H 3.34745 -6.99669 13.0769
H 4.1092 -5.41197 14.0801
H 2.13222 -7.27026 13.1876
H 0.930543 -6.1045 14.3394
H 1.39275 -5.1528 14.9365
H 3.37479 -4.72043 14.7897
H 5.59153 1.4529 12.4036
H 5.67003 1.70093 10.9741
H 4.8696 2.5087 13.3186
H 3.21873 3.61198 11.026
H 3.45827 3.71348 12.4555
H 4.28806 3.00538 10.111
H 6.20875 0.150938 12.9929
H 6.89027 -0.440228 12.3882
H 7.21003 -0.0146278 11.0114
H 6.39726 1.07711 10.3647
H 3.67874 0.745644 6.40269
H 4.28591 1.53944 7.57327
H 2.15584 2.16078 7.90868
H 1.5794 1.22012 6.95846
H 3.63169 2.12951 8.19099
H 2.26769 0.606039 6.29988
H 4.18002 -6.36486 10.8792
H 5.53106 -4.91728 13.7838
H -2.96406 -5.55417 7.97103
H -1.29913 -5.58908 6.6641
H -2.58264 -6.80532 9.57333
H 0.188427 -6.82475 7.55883
H -0.645403 -7.64132 9.33756
H -1.40759 -1.04301 15.9803
H -0.108829 -1.24776 16.766
H -2.1594 -2.27564 15.4538
H 0.874624 -2.97139 16.5663
H 0.345389 -4.02754 15.6229
H -1.12788 -4.01228 15.2561
H -3.50013 -4.97055 13.7863
H -0.733142 -6.27426 14.2308
H -1.42532 -7.47458 12.4874
H -1.66802 -5.03806 14.6227
H 5.00951 -1.04643 5.69052
H 6.36008 1.1123 8.10261
H 1.15646 3.32911 8.57662
H 1.78757 4.11375 10.3741
H 7.50531 -2.47515 13.0275
H 5.9643 -3.28801 14.1394
H 7.97338 -1.68717 9.55195
H 4.10857 1.75557 15.223
H -1.93064 0.430386 15.692
H 1.29419 0.396474 16.801
H -3.2195 0.678456 14.0063
H -2.86982 -2.86075 6.28373
H -4.72755 -4.54124 10.4868
H 2.56323 -7.57216 9.63942
H -4.70331 -1.32883 8.9648
